Version 4
SHEET 1 880 680
WIRE 32 192 -80 192
WIRE 512 192 416 192
FLAG -80 192 Vin
FLAG 512 192 Vout
SYMBOL inverter 80 192 R0
SYMATTR InstName X1
SYMBOL inverter 272 192 R0
SYMATTR InstName X2
