Version 4
SHEET 1 880 680
WIRE -176 96 -240 96
WIRE 304 96 -176 96
WIRE -176 160 -176 96
WIRE -128 160 -176 160
WIRE 96 160 16 160
WIRE 96 208 96 160
WIRE 304 208 304 96
WIRE 32 288 -240 288
WIRE 240 288 160 288
WIRE 528 288 368 288
FLAG -240 96 CLK
IOPIN -240 96 In
FLAG -240 288 D
IOPIN -240 288 In
FLAG 528 288 Q
IOPIN 528 288 Out
SYMBOL inverter -96 160 R0
SYMATTR InstName X4
SYMBOL Dlatch 304 288 R0
SYMATTR InstName X5
SYMBOL Dlatch 96 288 R0
SYMATTR InstName X6
TEXT 56 392 Left 2 ;master
TEXT 272 392 Left 2 ;slave
